Mason's Sims/PTI/PSSE35/EXAMPLE/savnw_nb.raw
@!IC, SBASE,REV,XFRRAT,NXFRAT,BASFRQ
0,   100.00, 35,     0,     1, 60.00     / PSS(R)E-35.0    THU, FEB 21 2019   9:17
PSS(R)E PROGRAM APPLICATION GUIDE EXAMPLE
BASE CASE INCLUDING SEQUENCE DATA
GENERAL, THRSHZ=0.0001, PQBRAK=0.7, BLOWUP=5.0, MaxIsolLvls=4, CAMaxReptSln=20, ChkDupCntLbl=0
GAUSS, ITMX=100, ACCP=1.6, ACCQ=1.6, ACCM=1.0, TOL=0.0001
NEWTON, ITMXN=100, ACCN=1.0, TOLN=0.1, VCTOLQ=0.1, VCTOLV=0.00001, DVLIM=0.99, NDVFCT=0.99
ADJUST, ADJTHR=0.005, ACCTAP=1.0, TAPLIM=0.05, SWVBND=100.0, MXTPSS=99, MXSWIM=10
TYSL, ITMXTY=20, ACCTY=1.0, TOLTY=0.00001
SOLVER, FDNS, ACTAPS=1, AREAIN=0, PHSHFT=0, DCTAPS=1, SWSHNT=1, FLATST=0, VARLIM=99, NONDIV=0
RATING, 1, "CRCUS1", "Circus-Fibrous or threadlike    "
RATING, 2, "CRSTR2", "Cirrostrarus-Milky, translucent "
RATING, 3, "CRCUM3", "Cirrocumulus-small, white flakes"
RATING, 4, "ALTCU4", "Altocumulus-bundles or rollers  "
RATING, 5, "ALTST5", "Altostratus-dense, gray layer   "
RATING, 6, "STRTO6", "Stratocumulus-plaices or rollers"
RATING, 7, "STRTS7", "Stratus-Evenly grey, low layer  "
RATING, 8, "CMULS8", "Cumulus-Heap with flat basis    "
RATING, 9, "CMULO9", "Cumulonimbus-thunder, up-rises  "
RATING,10, "NIBS10", "Nimbostratus-rain,grey, dark    "
RATING,11, "CPLL11", "capillatus-haired, frayed       "
RATING,12, "NBUL12", "nebulosus-fog, veil-like        "
0 / END OF SYSTEM-WIDE DATA, BEGIN BUS DATA
@!   I,'NAME        ', BASKV, IDE,AREA,ZONE,OWNER, VM,        VA,    NVHI,   NVLO,   EVHI,   EVLO
   101,'NUC-A       ',  21.6000,2,   1,  77,  11,1.02000,  14.8760,1.10000,0.90000,1.10000,0.90000
   102,'NUC-B       ',  21.6000,2,   1,  77,  11,1.02000,  23.6767,1.10000,0.90000,1.10000,0.90000
   151,'NUCPANT     ', 500.0000,1,   1,   1,   1,1.02468,   9.2730,1.10000,0.90000,1.10000,0.90000
   152,'MID500      ', 500.0000,1,   1,   1,   1,0.96664,  -0.5216,1.10000,0.90000,1.10000,0.90000
   153,'MID230      ', 230.0000,1,   1,   1,   1,0.98743,  -2.6915,1.10000,0.90000,1.10000,0.90000
   154,'DOWNTN      ', 230.0000,1,   1,   1,   1,0.78006, -17.1784,1.10000,0.90000,1.10000,0.90000
   201,'HYDRO       ', 500.0000,1,   2,   2,  22,1.03545,  11.4041,1.10000,0.90000,1.10000,0.90000
   202,'EAST500     ', 500.0000,1,   2,   2,   2,0.96741,   0.7270,1.10000,0.90000,1.10000,0.90000
   203,'EAST230     ', 230.0000,1,   2,   2,   2,0.92293,  -4.9441,1.10000,0.90000,1.10000,0.90000
   204,'SUB500      ', 500.0000,1,   2,   2,   2,0.97055,   1.9280,1.10000,0.90000,1.10000,0.90000
   205,'SUB230      ', 230.0000,1,   2,   2,   2,0.98000,  -2.9132,1.10000,0.90000,1.10000,0.90000
   206,'URBGEN      ',  18.0000,2,   2,   2,  22,1.04718,   2.9708,1.10000,0.90000,1.10000,0.90000
   211,'HYDRO_G     ',  20.0000,2,   2,   2,  22,1.10971,  17.6343,1.10000,0.90000,1.10000,0.90000
  3001,'MINE        ', 230.0000,1,   5,   5,  55,1.01335,  -1.6279,1.10000,0.90000,1.10000,0.90000
  3002,'E. MINE     ', 500.0000,1,   5,   5,   5,1.00407,  -2.1444,1.10000,0.90000,1.10000,0.90000
  3003,'S. MINE     ', 230.0000,1,   5,   5,   5,0.99790,  -2.7258,1.10000,0.90000,1.10000,0.90000
  3004,'WEST        ', 500.0000,1,   5,   5,   5,0.96577,  -3.9033,1.10000,0.90000,1.10000,0.90000
  3005,'WEST        ', 230.0000,1,   5,   5,   5,0.93858,  -6.3630,1.10000,0.90000,1.10000,0.90000
  3006,'UPTOWN      ', 230.0000,1,   5,   5,   5,0.97394,  -3.7220,1.10000,0.90000,1.10000,0.90000
  3007,'RURAL       ', 230.0000,1,   5,   5,   5,0.87535, -11.4746,1.10000,0.90000,1.10000,0.90000
  3008,'CATDOG      ', 230.0000,1,   5,   5,  55,0.84332, -13.4396,1.10000,0.90000,1.10000,0.90000
  3011,'MINE_G      ',  13.8000,3,   5,   5,  55,1.04000,   0.0000,1.10000,0.90000,1.10000,0.90000
  3018,'CATDOG_G    ',  13.8000,2,   5,   5,  55,0.91290,  -7.1134,1.10000,0.90000,1.10000,0.90000
0 / END OF BUS DATA, BEGIN LOAD DATA
@!   I,'ID',STAT,AREA,ZONE,      PL,        QL,        IP,        IQ,        YP,        YQ, OWNER,SCALE,INTRPT,  DGENP,     DGENQ, DGENF
   153,'1 ',   1,   1,   1,   200.000,   100.000,     0.000,     0.000,     0.000,     0.000,   1,    1,  0,     0.000,     0.000,   0
   154,'1 ',   1,   2,   1,   600.000,   450.000,     0.000,     0.000,     0.000,     0.000,   1,    1,  0,     0.000,     0.000,   0
   154,'2 ',   1,   2,   1,   400.000,   350.000,     0.000,     0.000,     0.000,     0.000, 100,    1,  0,     0.000,     0.000,   0
   203,'1 ',   1,   2,   2,   300.000,   150.000,     0.000,     0.000,     0.000,     0.000,   2,    1,  0,     0.000,     0.000,   0
   205,'1 ',   1,   2,   2,  1200.000,   700.000,     0.000,     0.000,     0.000,     0.000,   2,    1,  0,     0.000,     0.000,   0
  3005,'1 ',   1,   5,   5,   100.000,    50.000,     0.000,     0.000,     0.000,     0.000,   5,    1,  0,     0.000,     0.000,   0
  3007,'1 ',   1,   5,   5,   200.000,    75.000,     0.000,     0.000,     0.000,     0.000,   5,    1,  0,     0.000,     0.000,   0
  3008,'1 ',   1,   5,   5,   200.000,    75.000,     0.000,     0.000,     0.000,     0.000,   5,    1,  0,     0.000,     0.000,   0
0 / END OF LOAD DATA, BEGIN FIXED SHUNT DATA
@!   I,'ID',STATUS,  GL,        BL
   151,'1 ',1,     0.000,  -600.000
   154,'1 ',1,     0.000,   300.000
   201,'1 ',1,     0.000,   300.000
   203,'1 ',1,     0.000,    50.000
   205,'1 ',1,     0.000,   300.000
0 / END OF FIXED SHUNT DATA, BEGIN GENERATOR DATA
@!   I,'ID',      PG,        QG,        QT,        QB,     VS,    IREG,NREG,     MBASE,     ZR,         ZX,         RT,         XT,     GTAP,STAT, RMPCT,      PT,        PB,BASLOD,O1,    F1,  O2,    F2,  O3,    F3,  O4,    F4,WMOD, WPF
   101,'1 ',   750.000,   -14.891,   600.000,  -100.000,1.02000,   101,   0,   900.000, 1.00000E-2, 3.00000E-1, 0.00000E+0, 0.00000E+0,1.00000,1,  100.0,   810.000,     0.000, 0,  11,0.6667,   1,0.3333
   102,'1 ',   750.000,   276.658,   600.000,  -100.000,1.02000,   102,   0,   900.000, 1.00000E-2, 3.00000E-1, 0.00000E+0, 0.00000E+0,1.00000,1,  100.0,   810.000,     0.000, 0,  11,0.6667,   1,0.3333
   206,'1 ',   800.000,   552.747,   600.000,     0.000,0.98000,   205,   0,  1000.000, 1.00000E-2, 2.50000E-1, 0.00000E+0, 0.00000E+0,1.00000,1,  100.0,   900.000,     0.000, 0,   2,0.4000,  22,0.6000
   211,'1 ',   600.000,   400.000,   400.000,  -100.000,1.04000,   201,   0,   725.000, 1.00000E-2, 2.60000E-1, 0.00000E+0, 0.00000E+0,1.00000,1,  100.0,   616.250,     0.000, 0,   2,0.4000,  22,0.6000
  3011,'1 ',   304.899,   275.314,   600.000,  -100.000,1.04000,  3011,   0,  1000.000, 1.00000E-2, 3.50000E-1, 0.00000E+0, 0.00000E+0,1.00000,1,  100.0,   900.000,     0.000, 0,  55,0.3846,   5,0.3077,  22,0.2308,  11,0.0769
  3018,'1 ',   100.000,    80.000,    80.000,     0.000,1.02000,  3008,   0,   130.000, 1.00000E-2, 3.50000E-1, 0.00000E+0, 0.00000E+0,1.00000,1,  100.0,   117.000,     0.000, 0,  55,0.5556,   5,0.4444
0 / END OF GENERATOR DATA, BEGIN BRANCH DATA
@!   I,     J,'CKT',     R,          X,         B,                    'N A M E'                 ,   RATE1,   RATE2,   RATE3,   RATE4,   RATE5,   RATE6,   RATE7,   RATE8,   RATE9,  RATE10,  RATE11,  RATE12,    GI,       BI,       GJ,       BJ,STAT,MET,  LEN,  O1,  F1,    O2,  F2,    O3,  F3,    O4,  F4
   151,   201,'1 ', 1.00000E-3, 1.50000E-2,   1.20000,'BRANCH_FROM__151_TO__201___CIRCUIT_ID__1', 1200.00, 1300.00,    1.00,    0.00,    0.00,    0.00,    0.00,    0.00,    0.00,    0.00,    0.00,    0.00,  0.00000,  0.00000,  0.00000,  0.00000,1,1,   0.00,   1,1.0000
   151,   152,'1 ', 2.60000E-3, 4.60000E-2,   3.50000,'BRANCH_FROM__151_TO__152___CIRCUIT_ID__1', 1200.00, 1300.00,    1.00,    0.00,    0.00,    0.00,    0.00,    0.00,    0.00,    0.00,    0.00,    0.00,  0.00000,  0.00000,  0.00000,  0.00000,1,1,   0.00,   1,1.0000
   151,   152,'2 ', 2.60000E-3, 4.60000E-2,   3.50000,'BRANCH_FROM__151_TO__152___CIRCUIT_ID__2', 1200.00, 1300.00,    1.00,    0.00,    0.00,    0.00,    0.00,    0.00,    0.00,    0.00,    0.00,    0.00,  0.00000,  0.00000,  0.00000,  0.00000,1,1,   0.00,   1,1.0000
   152,   202,'1 ', 8.00000E-4, 1.00000E-2,   0.95000,'BRANCH_FROM__152_TO__202___CIRCUIT_ID__1', 1200.00, 1300.00,    1.00,    0.00,    0.00,    0.00,    0.00,    0.00,    0.00,    0.00,    0.00,    0.00,  0.00000,  0.00000,  0.00000,  0.00000,1,2,   0.00,   1,1.0000
   152,  3004,'1 ', 3.00000E-3, 3.00000E-2,   2.50000,'BRANCH_FROM__152_TO__3004__CIRCUIT_ID__1',    0.00,    0.00,    1.00,    0.00,    0.00,    0.00,    0.00,    0.00,    0.00,    0.00,    0.00,    0.00,  0.00000,  0.00000,  0.00000,  0.00000,1,1,   0.00,   1,1.0000
   153,   154,'1 ', 5.00000E-3, 4.50000E-2,   0.10000,'BRANCH_FROM__153_TO__154___CIRCUIT_ID__1',  300.00,  350.00,    1.00,    0.00,    0.00,    0.00,    0.00,    0.00,    0.00,    0.00,    0.00,    0.00,  0.00000,  0.00000,  0.00000,  0.00000,1,1,   0.00,   1,0.7500, 100,0.2500
   153,   154,'2 ', 6.00000E-3, 5.40000E-2,   0.15000,'BRANCH_FROM__153_TO__154___CIRCUIT_ID__2',  300.00,  350.00,    1.00,    0.00,    0.00,    0.00,    0.00,    0.00,    0.00,    0.00,    0.00,    0.00,  0.00000,  0.00000,  0.00000,  0.00000,1,1,   0.00,   1,1.0000
   153,  3006,'1 ', 1.00000E-3, 1.20000E-2,   0.03000,'BRANCH_FROM__153_TO__3006 _CIRCUIT_ID__1',    0.00,    0.00,    1.00,    0.00,    0.00,    0.00,    0.00,    0.00,    0.00,    0.00,    0.00,    0.00,  0.00000,  0.00000,  0.00000,  0.00000,1,1,   0.00,   1,1.0000
   154,   205,'1 ', 3.30000E-4, 3.33000E-3,   0.09000,'BRANCH_FROM__154_TO__205___CIRCUIT_ID__1',  600.00,  660.00,    1.00,    0.00,    0.00,    0.00,    0.00,    0.00,    0.00,    0.00,    0.00,    0.00,  0.00000,  0.00000,  0.00000,  0.00000,1,1,   0.00,   1,1.0000
   154,   203,'1 ', 4.00000E-3, 4.00000E-2,   0.10000,'BRANCH_FROM__154_TO__203___CIRCUIT_ID__1',  200.00,  250.00,    1.00,    0.00,    0.00,    0.00,    0.00,    0.00,    0.00,    0.00,    0.00,    0.00,  0.00000,  0.00000,  0.00000,  0.00000,1,1,   0.00,   1,1.0000
   154,  3008,'1 ', 2.70000E-3, 2.20000E-2,   0.30000,'BRANCH_FROM__154_TO__3008__CIRCUIT_ID__1',  400.00,  440.00,    1.00,    0.00,    0.00,    0.00,    0.00,    0.00,    0.00,    0.00,    0.00,    0.00,  0.00000,  0.00000,  0.00000,  0.00000,1,1,   0.00,   1,1.0000
   201,   202,'1 ', 2.00000E-3, 2.50000E-2,   2.00000,'BRANCH_FROM__201_TO__202___CIRCUIT_ID__1', 1200.00, 1300.00,    1.00,    0.00,    0.00,    0.00,    0.00,    0.00,    0.00,    0.00,    0.00,    0.00,  0.00000,  0.00000,  0.00000,  0.00000,1,1,   0.00,  22,1.0000
   201,   204,'1 ', 3.00000E-3, 3.00000E-2,   2.50000,'BRANCH_FROM__201_TO__204___CIRCUIT_ID__1', 1200.00, 1300.00,    1.00,    0.00,    0.00,    0.00,    0.00,    0.00,    0.00,    0.00,    0.00,    0.00,  0.00000,  0.00000,  0.00000,  0.00000,1,1,   0.00,  22,1.0000
   203,   205,'1 ', 5.00000E-3, 4.50000E-2,   0.08000,'BRANCH_FROM__203_TO__205___CIRCUIT_ID__1',  200.00,  250.00,    1.00,    0.00,    0.00,    0.00,    0.00,    0.00,    0.00,    0.00,    0.00,    0.00,  0.00000,  0.00000,  0.00000,  0.00000,1,2,   0.00,   2,1.0000
   203,   205,'2 ', 5.00000E-3, 4.50000E-2,   0.08000,'BRANCH_FROM__203_TO__205___CIRCUIT_ID__2',  200.00,  250.00,    1.00,    0.00,    0.00,    0.00,    0.00,    0.00,    0.00,    0.00,    0.00,    0.00,  0.00000,  0.00000,  0.00000,  0.00000,1,2,   0.00,   2,1.0000
  3001,  3003,'1 ',-0.00000E+0, 8.00000E-3,   0.00000,'BRANCH_FROM__3001_TO__3003_CIRCUIT_ID__1',    0.00,    0.00,    1.00,    0.00,    0.00,    0.00,    0.00,    0.00,    0.00,    0.00,    0.00,    0.00,  0.00000,  0.00000,  0.00000,  0.00000,1,1,   0.00,  55,1.0000
  3002,  3004,'1 ', 6.00000E-3, 5.40000E-2,   0.09000,'BRANCH_FROM__3002_TO__3004_CIRCUIT_ID__1',    0.00,    0.00,    1.00,    0.00,    0.00,    0.00,    0.00,    0.00,    0.00,    0.00,    0.00,    0.00,  0.00000,  0.00000,  0.00000,  0.00000,1,1,   0.00,   5,1.0000
  3003,  3005,'1 ', 6.00000E-3, 5.40000E-2,   0.09000,'BRANCH_FROM__3003_TO__3005_CIRCUIT_ID__1',    0.00,    0.00,    1.00,    0.00,    0.00,    0.00,    0.00,    0.00,    0.00,    0.00,    0.00,    0.00,  0.00000,  0.00000,  0.00000,  0.00000,1,1,   0.00,   5,1.0000
  3003,  3005,'2 ', 6.00000E-3, 5.40000E-2,   0.09000,'BRANCH_FROM__3003_TO__3005_CIRCUIT_ID__2',    0.00,    0.00,    1.00,    0.00,    0.00,    0.00,    0.00,    0.00,    0.00,    0.00,    0.00,    0.00,  0.00000,  0.00000,  0.00000,  0.00000,1,1,   0.00,   5,1.0000
  3005,  3006,'1 ', 3.50000E-3, 3.00000E-2,   0.07000,'BRANCH_FROM__3005_TO__3006_CIRCUIT_ID__1',    0.00,    0.00,    1.00,    0.00,    0.00,    0.00,    0.00,    0.00,    0.00,    0.00,    0.00,    0.00,  0.00000,  0.00000,  0.00000,  0.00000,1,1,   0.00,   5,1.0000
  3005,  3007,'1 ', 3.00000E-3, 2.50000E-2,   0.06000,'BRANCH_FROM__3005_TO__3007_CIRCUIT_ID__1',    0.00,    0.00,    1.00,    0.00,    0.00,    0.00,    0.00,    0.00,    0.00,    0.00,    0.00,    0.00,  0.00000,  0.00000,  0.00000,  0.00000,1,1,   0.00,   5,1.0000
  3005,  3008,'1 ', 6.00000E-3, 5.00000E-2,   0.12000,'BRANCH_FROM__3005_TO__3008_CIRCUIT_ID__1',    0.00,    0.00,    1.00,    0.00,    0.00,    0.00,    0.00,    0.00,    0.00,    0.00,    0.00,    0.00,  0.00000,  0.00000,  0.00000,  0.00000,1,1,   0.00,   5,1.0000
  3007,  3008,'1 ', 3.00000E-3, 2.50000E-2,   0.06000,'BRANCH_FROM__3007_TO__3008_CIRCUIT_ID__1',    0.00,    0.00,    1.00,    0.00,    0.00,    0.00,    0.00,    0.00,    0.00,    0.00,    0.00,    0.00,  0.00000,  0.00000,  0.00000,  0.00000,1,1,   0.00,   5,1.0000
0 / END OF BRANCH DATA, BEGIN SYSTEM SWITCHING DEVICE DATA
@!   I,     J,'CKT',          X,   RATE1,   RATE2,   RATE3,   RATE4,   RATE5,   RATE6,   RATE7,   RATE8,   RATE9,  RATE10,  RATE11,  RATE12, STAT,NSTAT,  MET,STYPE,'NAME'
0 / END OF SYSTEM SWITCHING DEVICE DATA, BEGIN TRANSFORMER DATA
@!   I,     J,     K,'CKT',CW,CZ,CM,     MAG1,        MAG2,NMETR,               'N A M E',               STAT,O1,  F1,    O2,  F2,    O3,  F3,    O4,  F4,     'VECGRP', ZCOD
@!   R1-2,       X1-2,   SBASE1-2,     R2-3,       X2-3,   SBASE2-3,     R3-1,       X3-1,   SBASE3-1, VMSTAR,   ANSTAR
@!WINDV1,  NOMV1,    ANG1,  RATE1-1,  RATE1-2,  RATE1-3,  RATE1-4,  RATE1-5,  RATE1-6,  RATE1-7,  RATE1-8,  RATE1-9, RATE1-10, RATE1-11, RATE1-12,COD1,CONT1,NOD1,   RMA1,    RMI1,    VMA1,    VMI1, NTP1,TAB1,  CR1,     CX1,   CNXA1
@!WINDV2,  NOMV2,    ANG2,  RATE2-1,  RATE2-2,  RATE2-3,  RATE2-4,  RATE2-5,  RATE2-6,  RATE2-7,  RATE2-8,  RATE2-9, RATE2-10, RATE2-11, RATE2-12,COD2,CONT2,NOD2,   RMA2,    RMI2,    VMA2,    VMI2, NTP2,TAB2,  CR2,     CX2,   CNXA2
@!WINDV3,  NOMV3,    ANG3,  RATE3-1,  RATE3-2,  RATE3-3,  RATE3-4,  RATE3-5,  RATE3-6,  RATE3-7,  RATE3-8,  RATE3-9, RATE3-10, RATE3-11, RATE3-12,COD3,CONT3,NOD3,   RMA3,    RMI3,    VMA3,    VMI3, NTP3,TAB3,  CR3,     CX3,   CNXA3
   151,   101,     0,'1 ', 1, 1, 1, 0.00000E+00, 0.00000E+00,2,'TWOWDG_FROM___151_TO___101_CIRCUIT_ID__1',1,   1,1.0000,   0,1.0000,   0,1.0000,   0,1.0000,'            '
 3.00000E-4, 1.36000E-2,   100.00
1.00000,   0.000,   0.000,  1250.00,  1350.00,  1750.00,     0.00,     0.00,     0.00,     0.00,     0.00,     0.00,     0.00,     0.00,     0.00, 0,      0,   0, 1.10000, 0.90000, 1.10000, 0.90000,   5, 0, 0.00000, 0.00000,  0.000
1.00000,   0.000
   151,   102,     0,'1 ', 1, 1, 1, 0.00000E+00, 0.00000E+00,2,'TWOWDG_FROM___151_TO___102_CIRCUIT_ID__1',1,   1,1.0000,   0,1.0000,   0,1.0000,   0,1.0000,'            '
 3.00000E-4, 1.36000E-2,   100.00
1.00000,   0.000,   0.000,  1250.00,  1350.00,  1750.00,     0.00,     0.00,     0.00,     0.00,     0.00,     0.00,     0.00,     0.00,     0.00, 0,      0,   0, 1.10000, 0.90000, 1.10000, 0.90000,   5, 0, 0.00000, 0.00000,  0.000
1.00000,   0.000
   152,   153,     0,'1 ', 1, 1, 1, 0.00000E+00, 0.00000E+00,2,'TWOWDG_FROM___152_TO___103_CIRCUIT_ID__1',1,   1,1.0000,   0,1.0000,   0,1.0000,   0,1.0000,'            '
-0.00000E+0, 5.00000E-3,   100.00
0.95000,   0.000,   0.000,  2500.00,  3000.00,  3500.00,     0.00,     0.00,     0.00,     0.00,     0.00,     0.00,     0.00,     0.00,     0.00, 1,    154,   0, 1.05000, 0.95000, 1.00000, 0.98000,  33, 0, 0.00000, 0.00000,  0.000
1.00000,   0.000
   201,   211,     0,'1 ', 1, 1, 1, 0.00000E+00, 0.00000E+00,2,'TWOWDG_FROM___201_TO___211_CIRCUIT_ID__1',1,  22,1.0000,   0,1.0000,   0,1.0000,   0,1.0000,'            '
 7.00000E-4, 2.12500E-2,   100.00
1.00000,   0.000,   0.000,   800.00,  1000.00,  1120.00,     0.00,     0.00,     0.00,     0.00,     0.00,     0.00,     0.00,     0.00,     0.00, 0,    201,   0, 1.10000, 0.90000, 1.05000, 0.95000,   5, 0, 0.00000, 0.00000,  0.000
1.00000,   0.000
   202,   203,     0,'1 ', 1, 1, 1, 0.00000E+00, 0.00000E+00,2,'TWOWDG_FROM___202_TO___203_CIRCUIT_ID__1',1,   2,1.0000,   0,1.0000,   0,1.0000,   0,1.0000,'            '
 4.00000E-4, 1.62500E-2,   100.00
1.00000,   0.000,   0.000,   800.00,  1040.00,  1200.00,     0.00,     0.00,     0.00,     0.00,     0.00,     0.00,     0.00,     0.00,     0.00, 3,      0,   0,30.00000,-30.0000,555.0000,545.0000,  33, 0, 0.00000, 0.00000,  0.000
1.00000,   0.000
   204,   205,     0,'1 ', 1, 1, 1, 0.00000E+00, 0.00000E+00,2,'TWOWDG_FROM___204_TO___205_CIRCUIT_ID__1',1,   2,1.0000,   0,1.0000,   0,1.0000,   0,1.0000,'            '
 3.00000E-4, 1.50000E-2,   100.00
0.95938,   0.000,   0.000,   800.00,  1040.00,  1200.00,     0.00,     0.00,     0.00,     0.00,     0.00,     0.00,     0.00,     0.00,     0.00, 1,    205,   0, 1.05000, 0.95000, 1.00000, 0.98000,  33, 0, 0.00000, 0.00000,  0.000
1.00000,   0.000
   205,   206,     0,'1 ', 1, 1, 1, 0.00000E+00, 0.00000E+00,2,'TWOWDG_FROM___205_TO___206_CIRCUIT_ID__1',1,   2,1.0000,   0,1.0000,   0,1.0000,   0,1.0000,'            '
 2.60000E-4, 1.33300E-2,   100.00
1.00000,   0.000,   0.000,   900.00,  1080.00,  1350.00,     0.00,     0.00,     0.00,     0.00,     0.00,     0.00,     0.00,     0.00,     0.00, 0,      0,   0, 1.10000, 0.90000, 1.10000, 0.90000,   5, 0, 0.00000, 0.00000,  0.000
1.00000,   0.000
  3001,  3002,     0,'1 ', 1, 1, 1, 0.00000E+00, 0.00000E+00,1,'TWOWDG_FROM__3001_TO__3002_CIRCUIT_ID__1',1,  55,1.0000,   0,1.0000,   0,1.0000,   0,1.0000,'            '
 3.00000E-4, 1.50000E-2,   100.00
1.00000,   0.000,   0.000,   800.00,  1040.00,  1200.00,     0.00,     0.00,     0.00,     0.00,     0.00,     0.00,     0.00,     0.00,     0.00, 0,      0,   0, 1.10000, 0.90000, 1.05000, 0.95000,  33, 0, 0.00000, 0.00000,  0.000
1.00000,   0.000
  3001,  3011,     0,'1 ', 1, 1, 1, 0.00000E+00, 0.00000E+00,2,'TWOWDG_FROM__3001_TO__3011_CIRCUIT_ID__1',1,  55,1.0000,   0,1.0000,   0,1.0000,   0,1.0000,'            '
 2.00000E-4, 1.00000E-2,   100.00
1.00000,   0.000,   0.000,  1300.00,  1560.00,  1820.00,     0.00,     0.00,     0.00,     0.00,     0.00,     0.00,     0.00,     0.00,     0.00, 0,      0,   0, 1.10000, 0.90000, 1.05000, 0.95000,   5, 0, 0.00000, 0.00000,  0.000
1.00000,   0.000
  3004,  3005,     0,'1 ', 1, 1, 1, 0.00000E+00, 0.00000E+00,1,'TWOWDG_FROM__3004_TO__3005_CIRCUIT_ID__1',1,   5,1.0000,   0,1.0000,   0,1.0000,   0,1.0000,'            '
 4.00000E-4, 1.62500E-2,   100.00
1.00000,   0.000,   0.000,   800.00,  1040.00,  1200.00,     0.00,     0.00,     0.00,     0.00,     0.00,     0.00,     0.00,     0.00,     0.00, 0,      0,   0, 1.10000, 0.90000, 1.05000, 0.95000,  33, 0, 0.00000, 0.00000,  0.000
1.00000,   0.000
  3008,  3018,     0,'1 ', 1, 1, 1, 0.00000E+00, 0.00000E+00,2,'TWOWDG_FROM__3008_TO__3018_CIRCUIT_ID__1',1,  55,1.0000,   0,1.0000,   0,1.0000,   0,1.0000,'            '
 2.10000E-4, 8.50000E-2,   100.00
1.00000,   0.000,   0.000,   150.00,   200.00,   250.00,     0.00,     0.00,     0.00,     0.00,     0.00,     0.00,     0.00,     0.00,     0.00, 0,      0,   0, 1.10000, 0.90000, 1.05000, 0.95000,   5, 0, 0.00000, 0.00000,  0.000
1.00000,   0.000
0 / END OF TRANSFORMER DATA, BEGIN AREA DATA
@! I,   ISW,     PDES,      PTOL,    'ARNAME'
   1,   101,   250.000,    10.000,'FLAPCO      '
   2,   206,  -100.000,    10.000,'LIGHTCO     '
   5,  3011,  -150.000,    10.000,'WORLD       '
0 / END OF AREA DATA, BEGIN TWO-TERMINAL DC DATA
@!  'NAME',   MDC,     RDC,      SETVL,     VSCHD,     VCMOD,     RCOMP,    DELTI,METER    DCVMIN,CCCITMX, CCCACC
@! IPR,NBR,ANMXR,ANMNR,   RCR,    XCR,  EBASR,  TRR,    TAPR,   TMXR,   TMNR,   STPR,    ICR,NDR,   IFR,   ITR,'IDR', XCAPR
@! IPI,NBI,ANMXI,ANMNI,   RCI,    XCI,  EBASI,  TRI,    TAPI,   TMXI,   TMNI,   STPI,    ICI,NDI,   IFI,   ITI,'IDI', XCAPI
0 / END OF TWO-TERMINAL DC DATA, BEGIN VSC DC LINE DATA
@!  'NAME',   MDC,     RDC,   O1,  F1,    O2,  F2,    O3,  F3,    O4,  F4
@!IBUS,TYPE,MODE,     DCSET,   ACSET,     ALOSS,     BLOSS,   MINLOSS,     SMAX,      IMAX,   PWF,        MAXQ,      MINQ, VSREG,NREG,  RMPCT
0 / END OF VSC DC LINE DATA, BEGIN IMPEDANCE CORRECTION DATA
@!I,   T1,    Re(F1),  Im(F1),    T2,    Re(F2),  Im(F2),    T3,    Re(F3),  Im(F3),    T4,    Re(F4),  Im(F4),    T5,    Re(F5),  Im(F5),    T6,    Re(F6),  Im(F6)
@!     T7,    Re(F7),  Im(F7),    T8,    Re(F8),  Im(F8),    T9,    Re(F9),  Im(F9),    T10,  Re(F10), Im(F10),    T11,  Re(F11), Im(F11),    T12,  Re(F12), Im(F12)
@!      ...
0 / END OF IMPEDANCE CORRECTION DATA, BEGIN MULTI-TERMINAL DC DATA
@!  'NAME',    NCONV,NDCBS,NDCLN,  MDC, VCONV,     VCMOD, VCONVN
@!  IB, N,ANGMX,ANGMN,    RC,      XC,    EBAS,   TR,    TAP,    TPMX,   TPMN,   TSTP,     SETVL,   DCPF,    MARG,CNVCOD
@!IDC, IB,AREA,ZONE,   'DCNAME',  IDC2,   RGRND,OWNER
@!IDC,JDC,'DCCKT',MET,   RDC,        LDC
0 / END OF MULTI-TERMINAL DC DATA, BEGIN MULTI-SECTION LINE DATA
@!   I,     J,'ID',MET,DUM1,  DUM2,  DUM3,  DUM4,  DUM5,  DUM6,  DUM7,  DUM8,  DUM9
0 / END OF MULTI-SECTION LINE DATA, BEGIN ZONE DATA
@! I,   'ZONAME'
   1,'FIRST       '
   2,'SECOND      '
   5,'FIFTH       '
  77,'PLANT       '
0 / END OF ZONE DATA, BEGIN INTER-AREA TRANSFER DATA
@!ARFROM,ARTO,'TRID', PTRAN
     1,     2,'A',    70.00
     1,     2,'B',    30.00
     1,     5,'A',   100.00
     1,     5,'B',    50.00
0 / END OF INTER-AREA TRANSFER DATA, BEGIN OWNER DATA
@! I,   'OWNAME'
   1,'TRAN 1      '
   2,'TRAN 2      '
   5,'TRAN 5      '
  11,'GEN 1       '
  22,'GEN 2       '
  55,'GEN 5       '
 100,'NO BUSES    '
0 / END OF OWNER DATA, BEGIN FACTS DEVICE DATA
@!  'NAME',         I,     J,MODE,   PDES,      QDES,  VSET,      SHMX,      TRMX,   VTMN,   VTMX,   VSMX,      IMX,     LINX,   RMPCT,OWNER,    SET1,      SET2,VSREF, FCREG,NREG,   'MNAME'
0 / END OF FACTS DEVICE DATA, BEGIN SWITCHED SHUNT DATA
@!   I,'ID',MODSW,ADJM,ST, VSWHI,  VSWLO, SWREG,NREG,  RMPCT,   'RMIDNT',      BINIT,S1,N1,     B1, S2,N2,     B2, S3,N3,     B3, S4,N4,     B4, S5,N5,     B5, S6,N6,     B6, S7,N7,     B7, S8,N8,     B8
0 / END OF SWITCHED SHUNT DATA, BEGIN GNE DATA
@!  'NAME',        'MODEL',     NTERM,BUS1...BUSNTERM,NREAL,NINTG,NCHAR
@!ST,OWNER,NMETR
@! REAL1...REAL(MIN(10,NREAL))
@! INTG1...INTG(MIN(10,NINTG))
@! CHAR1...CHAR(MIN(10,NCHAR))
0 / END OF GNE DATA, BEGIN INDUCTION MACHINE DATA
@!   I,'ID',ST,SC,DC,AREA,ZONE,OWNER,TC,BC,  MBASE, RATEKV,PC,  PSET,      H,       A,       B,       D,       E,     RA,        XA,        XM,        R1,        X1,        R2,        X2,        X3,       E1,    SE1,   E2,    SE2,   IA1,   IA2, XAMULT
0 / END OF INDUCTION MACHINE DATA, BEGIN SUBSTATION DATA
@! BEGIN SUBSTATION DATA BLOCK
@!  IS,                'N A M E'                 ,    LATITUDE,   LONGITUDE,     SGR
     1,'SUBSTATION_NILE_TYPE_3_DBDB             ',  33.6134987, -87.3737030,  0.2100
@! BEGIN SUBSTATION NODE DATA
@!  NI,                'N A M E'                 ,     I,STATUS,   VM  ,   VA
     1,'SS_NILE_NODE_1                          ',   101,     1
     2,'SS_NILE_NODE_2                          ',   101,     1
     3,'SS_NILE_NODE_3                          ',   101,     1
     4,'SS_NILE_NODE_4                          ',   101,     1
     5,'SS_NILE_NODE_5                          ',   102,     1
     6,'SS_NILE_NODE_6                          ',   102,     1
     7,'SS_NILE_NODE_7                          ',   102,     1
     8,'SS_NILE_NODE_8                          ',   102,     1
     9,'SS_NILE_NODE_9                          ',   151,     1,1.02468,   9.2730
    10,'SS_NILE_NODE_10                         ',   151,     1,1.02468,   9.2730
    11,'SS_NILE_NODE_11                         ',   151,     1,1.02468,   9.2730
    12,'SS_NILE_NODE_12                         ',   151,     1,1.02468,   9.2730
    13,'SS_NILE_NODE_13                         ',   151,     1,1.02468,   9.2730
    14,'SS_NILE_NODE_14                         ',   151,     1,1.02468,   9.2730
    15,'SS_NILE_NODE_15                         ',   151,     1,1.02468,   9.2730
    16,'SS_NILE_NODE_16                         ',   151,     1,1.02468,   9.2730
     0 / END OF SUBSTATION NODE DATA, BEGIN SUBSTATION SWITCHING DEVICE DATA
@!  NI, NJ,CKTID,                'N A M E'                 ,  TYPE,STATUS, NSTAT,     X  ,   RATE1,   RATE2,   RATE3
     1,  3, '1 ','SS_NILE_SWD_1_3_1                       ',     2,     1,     1, 0.00010,     0.0,     0.0,     0.0
     1,  4, '1 ','SS_NILE_SWD_1_4_1                       ',     2,     1,     1, 0.00010,     0.0,     0.0,     0.0
     2,  3, '1 ','SS_NILE_SWD_2_3_1                       ',     2,     1,     1, 0.00010,     0.0,     0.0,     0.0
     2,  4, '1 ','SS_NILE_SWD_2_4_1                       ',     2,     1,     1, 0.00010,     0.0,     0.0,     0.0
     5,  7, '1 ','SS_NILE_SWD_5_7_1                       ',     2,     1,     1, 0.00010,     0.0,     0.0,     0.0
     5,  8, '1 ','SS_NILE_SWD_5_8_1                       ',     2,     1,     1, 0.00010,     0.0,     0.0,     0.0
     6,  7, '1 ','SS_NILE_SWD_6_7_1                       ',     2,     1,     1, 0.00010,     0.0,     0.0,     0.0
     6,  8, '1 ','SS_NILE_SWD_6_8_1                       ',     2,     1,     1, 0.00010,     0.0,     0.0,     0.0
     9, 11, '1 ','SS_NILE_SWD_9_11_1                      ',     2,     1,     1, 0.00010,     0.0,     0.0,     0.0
     9, 12, '1 ','SS_NILE_SWD_9_12_1                      ',     2,     1,     1, 0.00010,     0.0,     0.0,     0.0
     9, 13, '1 ','SS_NILE_SWD_9_13_1                      ',     2,     1,     1, 0.00010,     0.0,     0.0,     0.0
     9, 14, '1 ','SS_NILE_SWD_9_14_1                      ',     2,     1,     1, 0.00010,     0.0,     0.0,     0.0
     9, 15, '1 ','SS_NILE_SWD_9_15_1                      ',     2,     1,     1, 0.00010,     0.0,     0.0,     0.0
     9, 16, '1 ','SS_NILE_SWD_9_16_1                      ',     2,     1,     1, 0.00010,     0.0,     0.0,     0.0
    10, 11, '1 ','SS_NILE_SWD_10_11_1                     ',     2,     1,     1, 0.00010,     0.0,     0.0,     0.0
    10, 12, '1 ','SS_NILE_SWD_10_12_1                     ',     2,     1,     1, 0.00010,     0.0,     0.0,     0.0
    10, 13, '1 ','SS_NILE_SWD_10_13_1                     ',     2,     1,     1, 0.00010,     0.0,     0.0,     0.0
    10, 14, '1 ','SS_NILE_SWD_10_14_1                     ',     2,     1,     1, 0.00010,     0.0,     0.0,     0.0
    10, 15, '1 ','SS_NILE_SWD_10_15_1                     ',     2,     1,     1, 0.00010,     0.0,     0.0,     0.0
    10, 16, '1 ','SS_NILE_SWD_10_16_1                     ',     2,     1,     1, 0.00010,     0.0,     0.0,     0.0
     0 / END OF SUBSTATION SWITCHING DEVICE DATA, BEGIN SUBSTATION TERMINAL DATA
@!   I, NI, TYP,     J,     K, ID
   101,  4, 'M',              '1 '
   101,  3, '2',   151,       '1 '
   102,  8, 'M',              '1 '
   102,  7, '2',   151,       '1 '
   151, 16, 'F',              '1 '
   151, 15, '2',   102,       '1 '
   151, 12, 'B',   201,       '1 '
   151, 14, '2',   101,       '1 '
   151, 11, 'B',   152,       '1 '
   151, 13, 'B',   152,       '2 '
     0 / END OF SUBSTATION TERMINAL DATA
@! BEGIN SUBSTATION DATA BLOCK
@!  IS,                'N A M E'                 ,    LATITUDE,   LONGITUDE,     SGR
     2,'SUBSTATION_YANGTZE_TYPE_6_MBTB          ',  34.3103981, -86.3657990,  0.2200
@! BEGIN SUBSTATION NODE DATA
@!  NI,                'N A M E'                 ,     I,STATUS,   VM  ,   VA
     1,'SS_YANGTZE_NODE_1                       ',   152,     1
     2,'SS_YANGTZE_NODE_2                       ',   152,     0
     3,'SS_YANGTZE_NODE_3                       ',   152,     1
     4,'SS_YANGTZE_NODE_4                       ',   152,     1
     5,'SS_YANGTZE_NODE_5                       ',   152,     1
     6,'SS_YANGTZE_NODE_6                       ',   152,     1
     7,'SS_YANGTZE_NODE_7                       ',   152,     1
     8,'SS_YANGTZE_NODE_8                       ',   153,     1
     9,'SS_YANGTZE_NODE_9                       ',   153,     0
    10,'SS_YANGTZE_NODE_10                      ',   153,     1
    11,'SS_YANGTZE_NODE_11                      ',   153,     1
    12,'SS_YANGTZE_NODE_12                      ',   153,     1
    13,'SS_YANGTZE_NODE_13                      ',   153,     1
    14,'SS_YANGTZE_NODE_14                      ',   153,     1
     0 / END OF SUBSTATION NODE DATA, BEGIN SUBSTATION SWITCHING DEVICE DATA
@!  NI, NJ,CKTID,                'N A M E'                 ,  TYPE,STATUS, NSTAT,     X  ,   RATE1,   RATE2,   RATE3
     1,  2, '1 ','SS_YANGTZE_SWD_1_2_1                    ',     2,     0,     0, 0.00010,     0.0,     0.0,     0.0
     1,  3, '1 ','SS_YANGTZE_SWD_1_3_1                    ',     2,     1,     1, 0.00010,     0.0,     0.0,     0.0
     1,  4, '1 ','SS_YANGTZE_SWD_1_4_1                    ',     2,     1,     1, 0.00010,     0.0,     0.0,     0.0
     1,  5, '1 ','SS_YANGTZE_SWD_1_5_1                    ',     2,     1,     1, 0.00010,     0.0,     0.0,     0.0
     1,  6, '1 ','SS_YANGTZE_SWD_1_6_1                    ',     2,     1,     1, 0.00010,     0.0,     0.0,     0.0
     1,  7, '1 ','SS_YANGTZE_SWD_1_7_1                    ',     2,     1,     1, 0.00010,     0.0,     0.0,     0.0
     2,  3, '1 ','SS_YANGTZE_SWD_2_3_1                    ',     3,     0,     0, 0.00010,     0.0,     0.0,     0.0
     2,  4, '1 ','SS_YANGTZE_SWD_2_4_1                    ',     3,     0,     0, 0.00010,     0.0,     0.0,     0.0
     2,  5, '1 ','SS_YANGTZE_SWD_2_5_1                    ',     3,     0,     0, 0.00010,     0.0,     0.0,     0.0
     2,  6, '1 ','SS_YANGTZE_SWD_2_6_1                    ',     3,     0,     0, 0.00010,     0.0,     0.0,     0.0
     2,  7, '1 ','SS_YANGTZE_SWD_2_7_1                    ',     3,     0,     0, 0.00010,     0.0,     0.0,     0.0
     8,  9, '1 ','SS_YANGTZE_SWD_8_9_1                    ',     2,     0,     0, 0.00010,     0.0,     0.0,     0.0
     8, 10, '1 ','SS_YANGTZE_SWD_8_10_1                   ',     2,     1,     1, 0.00010,     0.0,     0.0,     0.0
     8, 11, '1 ','SS_YANGTZE_SWD_8_11_1                   ',     2,     1,     1, 0.00010,     0.0,     0.0,     0.0
     8, 12, '1 ','SS_YANGTZE_SWD_8_12_1                   ',     2,     1,     1, 0.00010,     0.0,     0.0,     0.0
     8, 13, '1 ','SS_YANGTZE_SWD_8_13_1                   ',     2,     1,     1, 0.00010,     0.0,     0.0,     0.0
     8, 14, '1 ','SS_YANGTZE_SWD_8_14_1                   ',     2,     1,     1, 0.00010,     0.0,     0.0,     0.0
     9, 10, '1 ','SS_YANGTZE_SWD_9_10_1                   ',     3,     0,     0, 0.00010,     0.0,     0.0,     0.0
     9, 11, '1 ','SS_YANGTZE_SWD_9_11_1                   ',     3,     0,     0, 0.00010,     0.0,     0.0,     0.0
     9, 12, '1 ','SS_YANGTZE_SWD_9_12_1                   ',     3,     0,     0, 0.00010,     0.0,     0.0,     0.0
     9, 13, '1 ','SS_YANGTZE_SWD_9_13_1                   ',     3,     0,     0, 0.00010,     0.0,     0.0,     0.0
     9, 14, '1 ','SS_YANGTZE_SWD_9_14_1                   ',     3,     0,     0, 0.00010,     0.0,     0.0,     0.0
     0 / END OF SUBSTATION SWITCHING DEVICE DATA, BEGIN SUBSTATION TERMINAL DATA
@!   I, NI, TYP,     J,     K, ID
   152,  6, 'B',   151,       '1 '
   152,  7, 'B',   151,       '2 '
   152,  5, '2',   153,       '1 '
   152,  3, 'B',   202,       '1 '
   152,  4, 'B',  3004,       '1 '
   153, 14, 'L',              '1 '
   153, 13, '2',   152,       '1 '
   153, 10, 'B',   154,       '1 '
   153, 11, 'B',   154,       '2 '
   153, 12, 'B',  3006,       '1 '
     0 / END OF SUBSTATION TERMINAL DATA
@! BEGIN SUBSTATION DATA BLOCK
@!  IS,                'N A M E'                 ,    LATITUDE,   LONGITUDE,     SGR
     3,'SUBSTATION_ARKANSAS_TYPE_4_BH           ',  33.9551010, -84.6793976,  0.2300
@! BEGIN SUBSTATION NODE DATA
@!  NI,                'N A M E'                 ,     I,STATUS,   VM  ,   VA
     1,'SS_ARKANSAS_NODE_1                      ',   154,     1,0.78006, -17.1784
     2,'SS_ARKANSAS_NODE_2                      ',   154,     1,0.78006, -17.1784
     3,'SS_ARKANSAS_NODE_3                      ',   154,     1,0.78006, -17.1784
     4,'SS_ARKANSAS_NODE_4                      ',   154,     1,0.78006, -17.1784
     5,'SS_ARKANSAS_NODE_5                      ',   154,     1,0.78006, -17.1784
     6,'SS_ARKANSAS_NODE_6                      ',   154,     1,0.78006, -17.1784
     7,'SS_ARKANSAS_NODE_7                      ',   154,     1,0.78006, -17.1784
     8,'SS_ARKANSAS_NODE_8                      ',   154,     1,0.78006, -17.1784
     9,'SS_ARKANSAS_NODE_9                      ',   154,     1,0.78006, -17.1784
    10,'SS_ARKANSAS_NODE_10                     ',   154,     1,0.78006, -17.1784
     0 / END OF SUBSTATION NODE DATA, BEGIN SUBSTATION SWITCHING DEVICE DATA
@!  NI, NJ,CKTID,                'N A M E'                 ,  TYPE,STATUS, NSTAT,     X  ,   RATE1,   RATE2,   RATE3
     1,  3, '1 ','SS_ARKANSAS_SWD_1_3_1                   ',     2,     0,     1, 0.00010,     0.0,     0.0,     0.0
     1,  4, '1 ','SS_ARKANSAS_SWD_1_4_1                   ',     2,     1,     1, 0.00010,     0.0,     0.0,     0.0
     1,  5, '1 ','SS_ARKANSAS_SWD_1_5_1                   ',     2,     0,     1, 0.00010,     0.0,     0.0,     0.0
     1,  6, '1 ','SS_ARKANSAS_SWD_1_6_1                   ',     2,     1,     1, 0.00010,     0.0,     0.0,     0.0
     2,  7, '1 ','SS_ARKANSAS_SWD_2_7_1                   ',     2,     1,     1, 0.00010,     0.0,     0.0,     0.0
     2,  8, '1 ','SS_ARKANSAS_SWD_2_8_1                   ',     2,     1,     1, 0.00010,     0.0,     0.0,     0.0
     2,  9, '1 ','SS_ARKANSAS_SWD_2_9_1                   ',     2,     1,     1, 0.00010,     0.0,     0.0,     0.0
     2, 10, '1 ','SS_ARKANSAS_SWD_2_10_1                  ',     2,     1,     1, 0.00010,     0.0,     0.0,     0.0
     3,  7, '1 ','SS_ARKANSAS_SWD_3_7_1                   ',     2,     1,     1, 0.00010,     0.0,     0.0,     0.0
     4,  8, '1 ','SS_ARKANSAS_SWD_4_8_1                   ',     2,     0,     1, 0.00010,     0.0,     0.0,     0.0
     5,  9, '1 ','SS_ARKANSAS_SWD_5_9_1                   ',     2,     1,     1, 0.00010,     0.0,     0.0,     0.0
     6, 10, '1 ','SS_ARKANSAS_SWD_6_10_1                  ',     2,     0,     1, 0.00010,     0.0,     0.0,     0.0
     0 / END OF SUBSTATION SWITCHING DEVICE DATA, BEGIN SUBSTATION TERMINAL DATA
@!   I, NI, TYP,     J,     K, ID
   154,  6, 'B',   153,       '1 '
   154,  4, 'B',   205,       '1 '
   154,  8, 'L',              '1 '
   154,  9, 'L',              '2 '
   154, 10, 'F',              '1 '
   154,  7, 'B',   153,       '2 '
   154,  3, 'B',   203,       '1 '
   154,  5, 'B',  3008,       '1 '
     0 / END OF SUBSTATION TERMINAL DATA
@! BEGIN SUBSTATION DATA BLOCK
@!  IS,                'N A M E'                 ,    LATITUDE,   LONGITUDE,     SGR
     4,'SUBSTATION_COLORADO_TYPE_5_DBSB         ',  33.5479012, -86.0746002,  1.0000
@! BEGIN SUBSTATION NODE DATA
@!  NI,                'N A M E'                 ,     I,STATUS,   VM  ,   VA
     1,'SS_COLORADO_NODE_1                      ',   201,     1
     2,'SS_COLORADO_NODE_2                      ',   201,     1
     3,'SS_COLORADO_NODE_3                      ',   201,     1
     4,'SS_COLORADO_NODE_4                      ',   201,     1
     5,'SS_COLORADO_NODE_5                      ',   201,     1
     6,'SS_COLORADO_NODE_6                      ',   201,     1
     7,'SS_COLORADO_NODE_7                      ',   201,     1
     8,'SS_COLORADO_NODE_8                      ',   201,     1
     9,'SS_COLORADO_NODE_9                      ',   201,     1
    10,'SS_COLORADO_NODE_10                     ',   201,     1
    11,'SS_COLORADO_NODE_11                     ',   201,     1
    12,'SS_COLORADO_NODE_12                     ',   201,     1
    13,'SS_COLORADO_NODE_13                     ',   211,     1
    14,'SS_COLORADO_NODE_14                     ',   211,     1
    15,'SS_COLORADO_NODE_15                     ',   211,     1
    16,'SS_COLORADO_NODE_16                     ',   211,     1
    17,'SS_COLORADO_NODE_17                     ',   211,     1
    18,'SS_COLORADO_NODE_18                     ',   211,     1
     0 / END OF SUBSTATION NODE DATA, BEGIN SUBSTATION SWITCHING DEVICE DATA
@!  NI, NJ,CKTID,                'N A M E'                 ,  TYPE,STATUS, NSTAT,     X  ,   RATE1,   RATE2,   RATE3
     1,  2, '1 ','SS_COLORADO_SWD_1_2_1                   ',     2,     1,     1, 0.00010,     0.0,     0.0,     0.0
     1,  8, '1 ','SS_COLORADO_SWD_1_8_1                   ',     3,     0,     0, 0.00010,     0.0,     0.0,     0.0
     1,  9, '1 ','SS_COLORADO_SWD_1_9_1                   ',     3,     0,     0, 0.00010,     0.0,     0.0,     0.0
     1, 10, '1 ','SS_COLORADO_SWD_1_10_1                  ',     3,     0,     0, 0.00010,     0.0,     0.0,     0.0
     1, 11, '1 ','SS_COLORADO_SWD_1_11_1                  ',     3,     0,     0, 0.00010,     0.0,     0.0,     0.0
     1, 12, '1 ','SS_COLORADO_SWD_1_12_1                  ',     3,     0,     0, 0.00010,     0.0,     0.0,     0.0
     2,  8, '1 ','SS_COLORADO_SWD_2_8_1                   ',     3,     1,     1, 0.00010,     0.0,     0.0,     0.0
     2,  9, '1 ','SS_COLORADO_SWD_2_9_1                   ',     3,     1,     1, 0.00010,     0.0,     0.0,     0.0
     2, 10, '1 ','SS_COLORADO_SWD_2_10_1                  ',     3,     1,     1, 0.00010,     0.0,     0.0,     0.0
     2, 11, '1 ','SS_COLORADO_SWD_2_11_1                  ',     3,     1,     1, 0.00010,     0.0,     0.0,     0.0
     2, 12, '1 ','SS_COLORADO_SWD_2_12_1                  ',     3,     1,     1, 0.00010,     0.0,     0.0,     0.0
     3,  8, '1 ','SS_COLORADO_SWD_3_8_1                   ',     2,     1,     1, 0.00010,     0.0,     0.0,     0.0
     4,  9, '1 ','SS_COLORADO_SWD_4_9_1                   ',     2,     1,     1, 0.00010,     0.0,     0.0,     0.0
     5, 10, '1 ','SS_COLORADO_SWD_5_10_1                  ',     2,     1,     1, 0.00010,     0.0,     0.0,     0.0
     6, 11, '1 ','SS_COLORADO_SWD_6_11_1                  ',     2,     1,     1, 0.00010,     0.0,     0.0,     0.0
     7, 12, '1 ','SS_COLORADO_SWD_7_12_1                  ',     2,     1,     1, 0.00010,     0.0,     0.0,     0.0
    13, 14, '1 ','SS_COLORADO_SWD_13_14_1                 ',     2,     1,     1, 0.00010,     0.0,     0.0,     0.0
    13, 17, '1 ','SS_COLORADO_SWD_13_17_1                 ',     3,     0,     0, 0.00010,     0.0,     0.0,     0.0
    13, 18, '1 ','SS_COLORADO_SWD_13_18_1                 ',     3,     0,     0, 0.00010,     0.0,     0.0,     0.0
    14, 17, '1 ','SS_COLORADO_SWD_14_17_1                 ',     3,     1,     1, 0.00010,     0.0,     0.0,     0.0
    14, 18, '1 ','SS_COLORADO_SWD_14_18_1                 ',     3,     1,     1, 0.00010,     0.0,     0.0,     0.0
    15, 17, '1 ','SS_COLORADO_SWD_15_17_1                 ',     2,     1,     1, 0.00010,     0.0,     0.0,     0.0
    16, 18, '1 ','SS_COLORADO_SWD_16_18_1                 ',     2,     1,     1, 0.00010,     0.0,     0.0,     0.0
     0 / END OF SUBSTATION SWITCHING DEVICE DATA, BEGIN SUBSTATION TERMINAL DATA
@!   I, NI, TYP,     J,     K, ID
   201,  7, 'F',              '1 '
   201,  6, 'B',   151,       '1 '
   201,  3, 'B',   202,       '1 '
   201,  4, 'B',   204,       '1 '
   201,  5, '2',   211,       '1 '
   211, 16, 'M',              '1 '
   211, 15, '2',   201,       '1 '
     0 / END OF SUBSTATION TERMINAL DATA
@! BEGIN SUBSTATION DATA BLOCK
@!  IS,                'N A M E'                 ,    LATITUDE,   LONGITUDE,     SGR
     5,'SUBSTATION_MISSISSIPPI_TYPE_5_DBSB      ',  32.7051010, -84.6633987,  0.1100
@! BEGIN SUBSTATION NODE DATA
@!  NI,                'N A M E'                 ,     I,STATUS,   VM  ,   VA
     1,'SS_MISSISSIPPI_NODE_1                   ',   202,     1
     2,'SS_MISSISSIPPI_NODE_2                   ',   202,     1
     3,'SS_MISSISSIPPI_NODE_3                   ',   202,     1
     4,'SS_MISSISSIPPI_NODE_4                   ',   202,     1
     5,'SS_MISSISSIPPI_NODE_5                   ',   202,     1
     6,'SS_MISSISSIPPI_NODE_6                   ',   202,     1
     7,'SS_MISSISSIPPI_NODE_7                   ',   202,     1
     8,'SS_MISSISSIPPI_NODE_8                   ',   202,     1
     9,'SS_MISSISSIPPI_NODE_9                   ',   203,     1
    10,'SS_MISSISSIPPI_NODE_10                  ',   203,     1
    11,'SS_MISSISSIPPI_NODE_11                  ',   203,     1
    12,'SS_MISSISSIPPI_NODE_12                  ',   203,     1
    13,'SS_MISSISSIPPI_NODE_13                  ',   203,     1
    14,'SS_MISSISSIPPI_NODE_14                  ',   203,     1
    15,'SS_MISSISSIPPI_NODE_15                  ',   203,     1
    16,'SS_MISSISSIPPI_NODE_16                  ',   203,     1
    17,'SS_MISSISSIPPI_NODE_17                  ',   203,     1
    18,'SS_MISSISSIPPI_NODE_18                  ',   203,     1
    19,'SS_MISSISSIPPI_NODE_19                  ',   203,     1
    20,'SS_MISSISSIPPI_NODE_20                  ',   203,     1
    21,'SS_MISSISSIPPI_NODE_21                  ',   203,     1
    22,'SS_MISSISSIPPI_NODE_22                  ',   203,     1
     0 / END OF SUBSTATION NODE DATA, BEGIN SUBSTATION SWITCHING DEVICE DATA
@!  NI, NJ,CKTID,                'N A M E'                 ,  TYPE,STATUS, NSTAT,     X  ,   RATE1,   RATE2,   RATE3
     1,  2, '1 ','SS_MISSISSIPPI_SWD_1_2_1                ',     2,     1,     1, 0.00010,     0.0,     0.0,     0.0
     1,  6, '1 ','SS_MISSISSIPPI_SWD_1_6_1                ',     3,     0,     0, 0.00010,     0.0,     0.0,     0.0
     1,  7, '1 ','SS_MISSISSIPPI_SWD_1_7_1                ',     3,     0,     0, 0.00010,     0.0,     0.0,     0.0
     1,  8, '1 ','SS_MISSISSIPPI_SWD_1_8_1                ',     3,     0,     0, 0.00010,     0.0,     0.0,     0.0
     2,  6, '1 ','SS_MISSISSIPPI_SWD_2_6_1                ',     3,     1,     1, 0.00010,     0.0,     0.0,     0.0
     2,  7, '1 ','SS_MISSISSIPPI_SWD_2_7_1                ',     3,     1,     1, 0.00010,     0.0,     0.0,     0.0
     2,  8, '1 ','SS_MISSISSIPPI_SWD_2_8_1                ',     3,     1,     1, 0.00010,     0.0,     0.0,     0.0
     3,  6, '1 ','SS_MISSISSIPPI_SWD_3_6_1                ',     2,     1,     1, 0.00010,     0.0,     0.0,     0.0
     4,  7, '1 ','SS_MISSISSIPPI_SWD_4_7_1                ',     2,     1,     1, 0.00010,     0.0,     0.0,     0.0
     5,  8, '1 ','SS_MISSISSIPPI_SWD_5_8_1                ',     2,     1,     1, 0.00010,     0.0,     0.0,     0.0
     9, 10, '1 ','SS_MISSISSIPPI_SWD_9_10_1               ',     2,     1,     1, 0.00010,     0.0,     0.0,     0.0
     9, 17, '1 ','SS_MISSISSIPPI_SWD_9_17_1               ',     3,     0,     0, 0.00010,     0.0,     0.0,     0.0
     9, 18, '1 ','SS_MISSISSIPPI_SWD_9_18_1               ',     3,     0,     0, 0.00010,     0.0,     0.0,     0.0
     9, 19, '1 ','SS_MISSISSIPPI_SWD_9_19_1               ',     3,     0,     0, 0.00010,     0.0,     0.0,     0.0
     9, 20, '1 ','SS_MISSISSIPPI_SWD_9_20_1               ',     3,     0,     0, 0.00010,     0.0,     0.0,     0.0
     9, 21, '1 ','SS_MISSISSIPPI_SWD_9_21_1               ',     3,     0,     0, 0.00010,     0.0,     0.0,     0.0
     9, 22, '1 ','SS_MISSISSIPPI_SWD_9_22_1               ',     3,     0,     0, 0.00010,     0.0,     0.0,     0.0
    10, 17, '1 ','SS_MISSISSIPPI_SWD_10_17_1              ',     3,     1,     1, 0.00010,     0.0,     0.0,     0.0
    10, 18, '1 ','SS_MISSISSIPPI_SWD_10_18_1              ',     3,     1,     1, 0.00010,     0.0,     0.0,     0.0
    10, 19, '1 ','SS_MISSISSIPPI_SWD_10_19_1              ',     3,     1,     1, 0.00010,     0.0,     0.0,     0.0
    10, 20, '1 ','SS_MISSISSIPPI_SWD_10_20_1              ',     3,     1,     1, 0.00010,     0.0,     0.0,     0.0
    10, 21, '1 ','SS_MISSISSIPPI_SWD_10_21_1              ',     3,     1,     1, 0.00010,     0.0,     0.0,     0.0
    10, 22, '1 ','SS_MISSISSIPPI_SWD_10_22_1              ',     3,     1,     1, 0.00010,     0.0,     0.0,     0.0
    11, 17, '1 ','SS_MISSISSIPPI_SWD_11_17_1              ',     2,     1,     1, 0.00010,     0.0,     0.0,     0.0
    12, 18, '1 ','SS_MISSISSIPPI_SWD_12_18_1              ',     2,     1,     1, 0.00010,     0.0,     0.0,     0.0
    13, 19, '1 ','SS_MISSISSIPPI_SWD_13_19_1              ',     2,     1,     1, 0.00010,     0.0,     0.0,     0.0
    14, 20, '1 ','SS_MISSISSIPPI_SWD_14_20_1              ',     2,     1,     1, 0.00010,     0.0,     0.0,     0.0
    15, 21, '1 ','SS_MISSISSIPPI_SWD_15_21_1              ',     2,     1,     1, 0.00010,     0.0,     0.0,     0.0
    16, 22, '1 ','SS_MISSISSIPPI_SWD_16_22_1              ',     2,     1,     1, 0.00010,     0.0,     0.0,     0.0
     0 / END OF SUBSTATION SWITCHING DEVICE DATA, BEGIN SUBSTATION TERMINAL DATA
@!   I, NI, TYP,     J,     K, ID
   202,  4, 'B',   152,       '1 '
   202,  5, 'B',   201,       '1 '
   202,  3, '2',   203,       '1 '
   203, 15, 'L',              '1 '
   203, 16, 'F',              '1 '
   203, 13, 'B',   154,       '1 '
   203, 14, '2',   202,       '1 '
   203, 11, 'B',   205,       '1 '
   203, 12, 'B',   205,       '2 '
     0 / END OF SUBSTATION TERMINAL DATA
@! BEGIN SUBSTATION DATA BLOCK
@!  IS,                'N A M E'                 ,    LATITUDE,   LONGITUDE,     SGR
     6,'SUBSTATION_VOLGA_TYPE_1_SB              ',  33.3773003, -82.6187973,  0.1200
@! BEGIN SUBSTATION NODE DATA
@!  NI,                'N A M E'                 ,     I,STATUS,   VM  ,   VA
     1,'SS_VOLGA_NODE_1                         ',   204,     1
     2,'SS_VOLGA_NODE_2                         ',   204,     1
     3,'SS_VOLGA_NODE_3                         ',   204,     1
     4,'SS_VOLGA_NODE_4                         ',   205,     1
     5,'SS_VOLGA_NODE_5                         ',   205,     1
     6,'SS_VOLGA_NODE_6                         ',   205,     1
     7,'SS_VOLGA_NODE_7                         ',   205,     1
     8,'SS_VOLGA_NODE_8                         ',   205,     1
     9,'SS_VOLGA_NODE_9                         ',   205,     1
    10,'SS_VOLGA_NODE_10                        ',   205,     1
    11,'SS_VOLGA_NODE_11                        ',   205,     1
    12,'SS_VOLGA_NODE_12                        ',   206,     1
    13,'SS_VOLGA_NODE_13                        ',   206,     1
    14,'SS_VOLGA_NODE_14                        ',   206,     1
     0 / END OF SUBSTATION NODE DATA, BEGIN SUBSTATION SWITCHING DEVICE DATA
@!  NI, NJ,CKTID,                'N A M E'                 ,  TYPE,STATUS, NSTAT,     X  ,   RATE1,   RATE2,   RATE3
     1,  2, '1 ','SS_VOLGA_SWD_1_2_1                      ',     2,     1,     1, 0.00010,     0.0,     0.0,     0.0
     1,  3, '1 ','SS_VOLGA_SWD_1_3_1                      ',     2,     1,     1, 0.00010,     0.0,     0.0,     0.0
     4,  5, '1 ','SS_VOLGA_SWD_4_5_1                      ',     2,     1,     1, 0.00010,     0.0,     0.0,     0.0
     4,  6, '1 ','SS_VOLGA_SWD_4_6_1                      ',     2,     1,     1, 0.00010,     0.0,     0.0,     0.0
     4,  7, '1 ','SS_VOLGA_SWD_4_7_1                      ',     2,     1,     1, 0.00010,     0.0,     0.0,     0.0
     4,  8, '1 ','SS_VOLGA_SWD_4_8_1                      ',     2,     1,     1, 0.00010,     0.0,     0.0,     0.0
     4,  9, '1 ','SS_VOLGA_SWD_4_9_1                      ',     2,     1,     1, 0.00010,     0.0,     0.0,     0.0
     4, 10, '1 ','SS_VOLGA_SWD_4_10_1                     ',     2,     1,     1, 0.00010,     0.0,     0.0,     0.0
     4, 11, '1 ','SS_VOLGA_SWD_4_11_1                     ',     2,     1,     1, 0.00010,     0.0,     0.0,     0.0
    12, 13, '1 ','SS_VOLGA_SWD_12_13_1                    ',     2,     1,     1, 0.00010,     0.0,     0.0,     0.0
    12, 14, '1 ','SS_VOLGA_SWD_12_14_1                    ',     2,     1,     1, 0.00010,     0.0,     0.0,     0.0
     0 / END OF SUBSTATION SWITCHING DEVICE DATA, BEGIN SUBSTATION TERMINAL DATA
@!   I, NI, TYP,     J,     K, ID
   204,  3, 'B',   201,       '1 '
   204,  2, '2',   205,       '1 '
   205, 10, 'L',              '1 '
   205, 11, 'F',              '1 '
   205,  6, 'B',   154,       '1 '
   205,  7, 'B',   203,       '1 '
   205,  8, 'B',   203,       '2 '
   205,  9, '2',   204,       '1 '
   205,  5, '2',   206,       '1 '
   206, 14, 'M',              '1 '
   206, 13, '2',   205,       '1 '
     0 / END OF SUBSTATION TERMINAL DATA
@! BEGIN SUBSTATION DATA BLOCK
@!  IS,                'N A M E'                 ,    LATITUDE,   LONGITUDE,     SGR
     8,'SUBSTATION_BRAHMAPUTRA_TYPE_4_BH        ',  34.2522011, -82.8363037,  0.1300
@! BEGIN SUBSTATION NODE DATA
@!  NI,                'N A M E'                 ,     I,STATUS,   VM  ,   VA
     1,'SS_BRAHMAPUTRA_NODE_1                   ',  3001,     1
     2,'SS_BRAHMAPUTRA_NODE_2                   ',  3001,     1
     3,'SS_BRAHMAPUTRA_NODE_3                   ',  3001,     1
     4,'SS_BRAHMAPUTRA_NODE_4                   ',  3001,     1
     5,'SS_BRAHMAPUTRA_NODE_5                   ',  3001,     1
     6,'SS_BRAHMAPUTRA_NODE_6                   ',  3001,     1
     7,'SS_BRAHMAPUTRA_NODE_7                   ',  3002,     1
     8,'SS_BRAHMAPUTRA_NODE_8                   ',  3002,     1
     9,'SS_BRAHMAPUTRA_NODE_9                   ',  3002,     1
    10,'SS_BRAHMAPUTRA_NODE_10                  ',  3002,     1
    11,'SS_BRAHMAPUTRA_NODE_11                  ',  3011,     1
    12,'SS_BRAHMAPUTRA_NODE_12                  ',  3011,     1
    13,'SS_BRAHMAPUTRA_NODE_13                  ',  3011,     1
    14,'SS_BRAHMAPUTRA_NODE_14                  ',  3011,     1
     0 / END OF SUBSTATION NODE DATA, BEGIN SUBSTATION SWITCHING DEVICE DATA
@!  NI, NJ,CKTID,                'N A M E'                 ,  TYPE,STATUS, NSTAT,     X  ,   RATE1,   RATE2,   RATE3
     1,  3, '1 ','SS_BRAHMAPUTRA_SWD_1_3_1                ',     2,     1,     1, 0.00010,     0.0,     0.0,     0.0
     1,  4, '1 ','SS_BRAHMAPUTRA_SWD_1_4_1                ',     2,     1,     1, 0.00010,     0.0,     0.0,     0.0
     2,  5, '1 ','SS_BRAHMAPUTRA_SWD_2_5_1                ',     2,     1,     1, 0.00010,     0.0,     0.0,     0.0
     2,  6, '1 ','SS_BRAHMAPUTRA_SWD_2_6_1                ',     2,     1,     1, 0.00010,     0.0,     0.0,     0.0
     3,  5, '1 ','SS_BRAHMAPUTRA_SWD_3_5_1                ',     2,     1,     1, 0.00010,     0.0,     0.0,     0.0
     4,  6, '1 ','SS_BRAHMAPUTRA_SWD_4_6_1                ',     2,     1,     1, 0.00010,     0.0,     0.0,     0.0
     7,  9, '1 ','SS_BRAHMAPUTRA_SWD_7_9_1                ',     2,     1,     1, 0.00010,     0.0,     0.0,     0.0
     8, 10, '1 ','SS_BRAHMAPUTRA_SWD_8_10_1               ',     2,     1,     1, 0.00010,     0.0,     0.0,     0.0
     9, 10, '1 ','SS_BRAHMAPUTRA_SWD_9_10_1               ',     2,     1,     1, 0.00010,     0.0,     0.0,     0.0
    11, 13, '1 ','SS_BRAHMAPUTRA_SWD_11_13_1              ',     2,     1,     1, 0.00010,     0.0,     0.0,     0.0
    12, 14, '1 ','SS_BRAHMAPUTRA_SWD_12_14_1              ',     2,     1,     1, 0.00010,     0.0,     0.0,     0.0
    13, 14, '1 ','SS_BRAHMAPUTRA_SWD_13_14_1              ',     2,     1,     1, 0.00010,     0.0,     0.0,     0.0
     0 / END OF SUBSTATION SWITCHING DEVICE DATA, BEGIN SUBSTATION TERMINAL DATA
@!   I, NI, TYP,     J,     K, ID
  3001,  4, '2',  3002,       '1 '
  3001,  3, 'B',  3003,       '1 '
  3001,  5, '2',  3011,       '1 '
  3002, 10, '2',  3001,       '1 '
  3002,  9, 'B',  3004,       '1 '
  3011, 14, 'M',              '1 '
  3011, 13, '2',  3001,       '1 '
     0 / END OF SUBSTATION TERMINAL DATA
@! BEGIN SUBSTATION DATA BLOCK
@!  IS,                'N A M E'                 ,    LATITUDE,   LONGITUDE,     SGR
     9,'SUBSTATION_INDUS_TYPE_6_MBTB            ',  34.1955986, -81.0979996,  0.1400
@! BEGIN SUBSTATION NODE DATA
@!  NI,                'N A M E'                 ,     I,STATUS,   VM  ,   VA
     1,'SS_INDUS_NODE_1                         ',  3004,     1
     2,'SS_INDUS_NODE_2                         ',  3004,     0
     3,'SS_INDUS_NODE_3                         ',  3004,     1
     4,'SS_INDUS_NODE_4                         ',  3004,     1
     5,'SS_INDUS_NODE_5                         ',  3004,     1
     6,'SS_INDUS_NODE_6                         ',  3005,     1
     7,'SS_INDUS_NODE_7                         ',  3005,     0
     8,'SS_INDUS_NODE_8                         ',  3005,     1
     9,'SS_INDUS_NODE_9                         ',  3005,     1
    10,'SS_INDUS_NODE_10                        ',  3005,     1
    11,'SS_INDUS_NODE_11                        ',  3005,     1
    12,'SS_INDUS_NODE_12                        ',  3005,     1
    13,'SS_INDUS_NODE_13                        ',  3005,     1
    14,'SS_INDUS_NODE_14                        ',  3005,     1
     0 / END OF SUBSTATION NODE DATA, BEGIN SUBSTATION SWITCHING DEVICE DATA
@!  NI, NJ,CKTID,                'N A M E'                 ,  TYPE,STATUS, NSTAT,     X  ,   RATE1,   RATE2,   RATE3
     1,  2, '1 ','SS_INDUS_SWD_1_2_1                      ',     2,     0,     0, 0.00010,     0.0,     0.0,     0.0
     1,  3, '1 ','SS_INDUS_SWD_1_3_1                      ',     2,     1,     1, 0.00010,     0.0,     0.0,     0.0
     1,  4, '1 ','SS_INDUS_SWD_1_4_1                      ',     2,     1,     1, 0.00010,     0.0,     0.0,     0.0
     1,  5, '1 ','SS_INDUS_SWD_1_5_1                      ',     2,     1,     1, 0.00010,     0.0,     0.0,     0.0
     2,  3, '1 ','SS_INDUS_SWD_2_3_1                      ',     3,     0,     0, 0.00010,     0.0,     0.0,     0.0
     2,  4, '1 ','SS_INDUS_SWD_2_4_1                      ',     3,     0,     0, 0.00010,     0.0,     0.0,     0.0
     2,  5, '1 ','SS_INDUS_SWD_2_5_1                      ',     3,     0,     0, 0.00010,     0.0,     0.0,     0.0
     6,  7, '1 ','SS_INDUS_SWD_6_7_1                      ',     2,     0,     0, 0.00010,     0.0,     0.0,     0.0
     6,  8, '1 ','SS_INDUS_SWD_6_8_1                      ',     2,     1,     1, 0.00010,     0.0,     0.0,     0.0
     6,  9, '1 ','SS_INDUS_SWD_6_9_1                      ',     2,     1,     1, 0.00010,     0.0,     0.0,     0.0
     6, 10, '1 ','SS_INDUS_SWD_6_10_1                     ',     2,     1,     1, 0.00010,     0.0,     0.0,     0.0
     6, 11, '1 ','SS_INDUS_SWD_6_11_1                     ',     2,     1,     1, 0.00010,     0.0,     0.0,     0.0
     6, 12, '1 ','SS_INDUS_SWD_6_12_1                     ',     2,     1,     1, 0.00010,     0.0,     0.0,     0.0
     6, 13, '1 ','SS_INDUS_SWD_6_13_1                     ',     2,     1,     1, 0.00010,     0.0,     0.0,     0.0
     6, 14, '1 ','SS_INDUS_SWD_6_14_1                     ',     2,     1,     1, 0.00010,     0.0,     0.0,     0.0
     7,  8, '1 ','SS_INDUS_SWD_7_8_1                      ',     3,     0,     0, 0.00010,     0.0,     0.0,     0.0
     7,  9, '1 ','SS_INDUS_SWD_7_9_1                      ',     3,     0,     0, 0.00010,     0.0,     0.0,     0.0
     7, 10, '1 ','SS_INDUS_SWD_7_10_1                     ',     3,     0,     0, 0.00010,     0.0,     0.0,     0.0
     7, 11, '1 ','SS_INDUS_SWD_7_11_1                     ',     3,     0,     0, 0.00010,     0.0,     0.0,     0.0
     7, 12, '1 ','SS_INDUS_SWD_7_12_1                     ',     3,     0,     0, 0.00010,     0.0,     0.0,     0.0
     7, 13, '1 ','SS_INDUS_SWD_7_13_1                     ',     3,     0,     0, 0.00010,     0.0,     0.0,     0.0
     7, 14, '1 ','SS_INDUS_SWD_7_14_1                     ',     3,     0,     0, 0.00010,     0.0,     0.0,     0.0
     0 / END OF SUBSTATION SWITCHING DEVICE DATA, BEGIN SUBSTATION TERMINAL DATA
@!   I, NI, TYP,     J,     K, ID
  3004,  4, 'B',   152,       '1 '
  3004,  5, 'B',  3002,       '1 '
  3004,  3, '2',  3005,       '1 '
  3005, 14, 'L',              '1 '
  3005, 11, 'B',  3003,       '1 '
  3005, 12, 'B',  3003,       '2 '
  3005, 13, '2',  3004,       '1 '
  3005,  8, 'B',  3006,       '1 '
  3005,  9, 'B',  3007,       '1 '
  3005, 10, 'B',  3008,       '1 '
     0 / END OF SUBSTATION TERMINAL DATA
@! BEGIN SUBSTATION DATA BLOCK
@!  IS,                'N A M E'                 ,    LATITUDE,   LONGITUDE,     SGR
    10,'SUBSTATION_DANUBE_TYPE_4_BH             ',  33.0122986, -80.0122986,  0.2400
@! BEGIN SUBSTATION NODE DATA
@!  NI,                'N A M E'                 ,     I,STATUS,   VM  ,   VA
     1,'SS_DANUBE_NODE_1                        ',  3008,     1
     2,'SS_DANUBE_NODE_2                        ',  3008,     1
     3,'SS_DANUBE_NODE_3                        ',  3008,     1
     4,'SS_DANUBE_NODE_4                        ',  3008,     1
     5,'SS_DANUBE_NODE_5                        ',  3008,     1
     6,'SS_DANUBE_NODE_6                        ',  3008,     1
     7,'SS_DANUBE_NODE_7                        ',  3008,     1
     8,'SS_DANUBE_NODE_8                        ',  3008,     1
     9,'SS_DANUBE_NODE_9                        ',  3018,     1
    10,'SS_DANUBE_NODE_10                       ',  3018,     1
    11,'SS_DANUBE_NODE_11                       ',  3018,     1
    12,'SS_DANUBE_NODE_12                       ',  3018,     1
     0 / END OF SUBSTATION NODE DATA, BEGIN SUBSTATION SWITCHING DEVICE DATA
@!  NI, NJ,CKTID,                'N A M E'                 ,  TYPE,STATUS, NSTAT,     X  ,   RATE1,   RATE2,   RATE3
     1,  3, '1 ','SS_DANUBE_SWD_1_3_1                     ',     2,     1,     1, 0.00010,     0.0,     0.0,     0.0
     1,  4, '1 ','SS_DANUBE_SWD_1_4_1                     ',     2,     1,     1, 0.00010,     0.0,     0.0,     0.0
     1,  5, '1 ','SS_DANUBE_SWD_1_5_1                     ',     2,     1,     1, 0.00010,     0.0,     0.0,     0.0
     2,  6, '1 ','SS_DANUBE_SWD_2_6_1                     ',     2,     1,     1, 0.00010,     0.0,     0.0,     0.0
     2,  7, '1 ','SS_DANUBE_SWD_2_7_1                     ',     2,     1,     1, 0.00010,     0.0,     0.0,     0.0
     2,  8, '1 ','SS_DANUBE_SWD_2_8_1                     ',     2,     1,     1, 0.00010,     0.0,     0.0,     0.0
     3,  6, '1 ','SS_DANUBE_SWD_3_6_1                     ',     2,     1,     1, 0.00010,     0.0,     0.0,     0.0
     4,  7, '1 ','SS_DANUBE_SWD_4_7_1                     ',     2,     1,     1, 0.00010,     0.0,     0.0,     0.0
     5,  8, '1 ','SS_DANUBE_SWD_5_8_1                     ',     2,     1,     1, 0.00010,     0.0,     0.0,     0.0
     9, 11, '1 ','SS_DANUBE_SWD_9_11_1                    ',     2,     1,     1, 0.00010,     0.0,     0.0,     0.0
    10, 12, '1 ','SS_DANUBE_SWD_10_12_1                   ',     2,     1,     1, 0.00010,     0.0,     0.0,     0.0
    11, 12, '1 ','SS_DANUBE_SWD_11_12_1                   ',     2,     1,     1, 0.00010,     0.0,     0.0,     0.0
     0 / END OF SUBSTATION SWITCHING DEVICE DATA, BEGIN SUBSTATION TERMINAL DATA
@!   I, NI, TYP,     J,     K, ID
  3008,  7, 'L',              '1 '
  3008,  4, 'B',   154,       '1 '
  3008,  5, 'B',  3005,       '1 '
  3008,  6, 'B',  3007,       '1 '
  3008,  3, '2',  3018,       '1 '
  3018, 12, 'M',              '1 '
  3018, 11, '2',  3008,       '1 '
     0 / END OF SUBSTATION TERMINAL DATA
@! BEGIN SUBSTATION DATA BLOCK
@!  IS,                'N A M E'                 ,    LATITUDE,   LONGITUDE,     SGR
    17,'SUBSTATION_ZAMBEZI_TYPE_3_DBDB          ',  33.0203018, -80.0203018,  0.1900
@! BEGIN SUBSTATION NODE DATA
...